Version 4
SHEET 1 1304 680
WIRE 816 0 752 0
WIRE 672 80 672 0
WIRE 736 80 672 80
WIRE 880 80 880 0
WIRE 880 80 800 80
WIRE 880 176 880 80
WIRE 880 176 832 176
WIRE 1024 176 880 176
WIRE 1088 176 1024 176
WIRE 1184 176 1088 176
WIRE 336 192 272 192
WIRE 480 192 336 192
WIRE 528 192 480 192
WIRE 672 192 672 80
WIRE 672 192 608 192
WIRE 704 192 672 192
WIRE 1024 192 1024 176
WIRE 1088 192 1088 176
WIRE 912 208 832 208
WIRE 1088 208 1088 192
WIRE 336 224 336 192
WIRE 480 224 480 192
WIRE 912 288 912 208
FLAG 912 288 0
FLAG 1024 256 0
FLAG 1088 256 0
FLAG 480 288 0
FLAG 272 192 vin
FLAG 336 304 0
FLAG 1184 256 0
SYMBOL AutoGenerated\\TPS613222A_TRANS 768 192 R0
SYMATTR InstName U1
SYMATTR SpiceLine ss=0
SYMBOL ind 512 208 R270
WINDOW 0 32 56 VTop 2
WINDOW 3 5 56 VBottom 2
SYMATTR InstName L1
SYMATTR Value 2.2µ
SYMBOL cap 496 288 R180
WINDOW 0 24 56 Left 2
WINDOW 3 24 8 Left 2
SYMATTR InstName C1
SYMATTR Value 4.7µ
SYMBOL cap 1040 256 R180
WINDOW 0 24 56 Left 2
WINDOW 3 24 8 Left 2
SYMATTR InstName C2
SYMATTR Value 22µ
SYMBOL cap 1104 256 R180
WINDOW 0 24 56 Left 2
WINDOW 3 24 8 Left 2
SYMATTR InstName C3
SYMATTR Value 22µ
SYMBOL diode 736 96 R270
WINDOW 0 32 32 VTop 2
WINDOW 3 0 32 VBottom 2
SYMATTR InstName D1
SYMATTR Value 1N914
SYMATTR Description Schottky diode
SYMATTR Type schottky
SYMBOL res 768 -16 R90
WINDOW 0 0 56 VBottom 2
WINDOW 3 32 56 VTop 2
SYMATTR InstName R1
SYMATTR Value 5
SYMBOL cap 880 -16 R90
WINDOW 0 0 32 VBottom 2
WINDOW 3 32 32 VTop 2
SYMATTR InstName C4
SYMATTR Value 560p
SYMBOL voltage 336 208 R0
WINDOW 123 0 0 Left 0
WINDOW 39 0 0 Left 0
SYMATTR InstName V1
SYMATTR Value 3.9
SYMBOL load2 1184 176 R0
WINDOW 123 0 0 Left 0
WINDOW 39 0 0 Left 0
SYMATTR InstName I1
SYMATTR Value 530m
TEXT 352 -16 Left 2 !.tran 500u
