Version 4
SHEET 1 880 680
WIRE 128 48 -512 48
WIRE 128 64 128 48
WIRE -128 96 -144 96
WIRE -48 96 -128 96
WIRE -144 160 -144 96
WIRE 128 160 128 144
WIRE 176 160 128 160
WIRE 320 176 240 176
WIRE 384 176 320 176
WIRE -48 192 -48 176
WIRE 48 192 -48 192
WIRE 176 192 48 192
WIRE -48 224 -48 192
WIRE 128 224 128 160
WIRE -512 240 -512 128
WIRE 48 256 48 192
WIRE 288 256 48 256
WIRE 384 256 384 176
WIRE 384 256 368 256
WIRE -144 288 -144 240
FLAG 128 304 0
FLAG -48 304 0
FLAG -144 288 0
FLAG 208 208 0
FLAG -128 96 3.3
FLAG 208 144 3.3
FLAG 320 176 vout
FLAG -512 240 0
SYMBOL res 112 48 R0
SYMATTR InstName R1
SYMATTR Value 1.6k
SYMBOL res 112 208 R0
SYMATTR InstName R2
SYMATTR Value 1.5k
SYMBOL res -64 208 R0
SYMATTR InstName R3
SYMATTR Value 11k
SYMBOL res -64 80 R0
SYMATTR InstName R4
SYMATTR Value 11k
SYMBOL voltage -144 144 R0
WINDOW 123 0 0 Left 0
WINDOW 39 0 0 Left 0
SYMATTR InstName V1
SYMATTR Value 3.3
SYMBOL voltage -512 32 R0
WINDOW 123 0 0 Left 0
WINDOW 39 0 0 Left 0
SYMATTR InstName V2
SYMATTR Value PULSE(4.2 0 0 100m 100m 0 200m)
SYMBOL OpAmps\\UniversalOpAmp2 208 176 R0
SYMATTR InstName U2
SYMBOL res 384 240 R90
WINDOW 0 0 56 VBottom 2
WINDOW 3 32 56 VTop 2
SYMATTR InstName R5
SYMATTR Value 180k
TEXT -544 328 Left 2 !.tran 200m
