Version 4
SHEET 1 932 708
WIRE -208 -48 -448 -48
WIRE -80 -48 -208 -48
WIRE 64 -48 -80 -48
WIRE 112 -48 64 -48
WIRE -208 -32 -208 -48
WIRE 768 -32 608 -32
WIRE 864 -32 768 -32
WIRE 768 -16 768 -32
WIRE 608 0 608 -32
WIRE 608 0 368 0
WIRE 64 32 -80 32
WIRE 720 32 576 32
WIRE 576 48 576 32
WIRE 112 64 112 -48
WIRE 128 64 112 64
WIRE 336 64 320 64
WIRE 368 64 368 0
WIRE 368 64 336 64
WIRE 400 64 368 64
WIRE 768 80 768 48
WIRE 864 80 864 48
WIRE 64 96 64 32
WIRE 128 96 64 96
WIRE 336 96 336 64
WIRE 336 96 320 96
WIRE 128 128 80 128
WIRE 576 128 320 128
WIRE -208 160 -448 160
WIRE -128 160 -208 160
WIRE 128 160 -128 160
WIRE 688 160 320 160
WIRE 720 160 720 32
WIRE 720 160 688 160
WIRE 768 160 720 160
WIRE 720 176 720 160
WIRE -208 192 -208 160
WIRE 128 192 80 192
WIRE 544 192 320 192
WIRE 128 224 96 224
WIRE 384 224 320 224
WIRE 544 224 544 192
WIRE 96 240 96 224
WIRE 720 288 720 256
FLAG 400 64 vout
FLAG 720 288 0
FLAG 384 304 0
FLAG 544 288 0
FLAG -80 112 0
FLAG -448 32 0
FLAG -448 240 0
FLAG 64 -48 vin1
FLAG -128 160 vin2
FLAG -208 32 0
FLAG -208 256 0
FLAG 96 240 0
FLAG 80 128 ov1
FLAG 80 192 ov2
FLAG 688 160 vref
FLAG 768 80 0
FLAG 864 80 0
SYMBOL AutoGenerated\\TPS2121_TRANS 224 144 R0
SYMATTR InstName U1
SYMBOL res 368 208 R0
SYMATTR InstName R1
SYMATTR Value 44.2k
SYMBOL cap 528 224 R0
SYMATTR InstName C1
SYMATTR Value 100n
SYMBOL res 592 144 R180
WINDOW 0 36 76 Left 2
WINDOW 3 36 40 Left 2
SYMATTR InstName R2
SYMATTR Value 10k
SYMBOL cap 752 -16 R0
SYMATTR InstName C2
SYMATTR Value 300µ
SYMBOL res 848 -48 R0
SYMATTR InstName R3
SYMATTR Value 100
SYMBOL voltage 720 160 R0
WINDOW 123 0 0 Left 0
WINDOW 39 0 0 Left 0
SYMATTR InstName V1
SYMATTR Value 3.3
SYMBOL res -96 -64 R0
SYMATTR InstName R4
SYMATTR Value 200
SYMBOL res -96 16 R0
SYMATTR InstName R5
SYMATTR Value 3.32k
SYMBOL voltage -448 -64 R0
WINDOW 123 0 0 Left 0
WINDOW 39 0 0 Left 0
WINDOW 3 4 -26 Left 2
SYMATTR InstName V2
SYMATTR Value PULSE(2.2 4.2 0 10m 150m 20m 120m)
SYMBOL voltage -448 144 R0
WINDOW 123 0 0 Left 0
WINDOW 39 0 0 Left 0
SYMATTR InstName V3
SYMATTR Value 4.0
SYMBOL cap -224 -32 R0
SYMATTR InstName C3
SYMATTR Value 4.7µ
SYMBOL cap -224 192 R0
SYMATTR InstName C4
SYMATTR Value 4.7µ
TEXT -496 296 Left 2 !.tran 400m
