Version 4
SHEET 1 884 708
WIRE 176 -128 16 -128
WIRE -208 -48 -448 -48
WIRE 64 -48 -208 -48
WIRE 112 -48 64 -48
WIRE -208 -32 -208 -48
WIRE 720 -32 608 -32
WIRE 816 -32 720 -32
WIRE 720 -16 720 -32
WIRE 608 0 608 -32
WIRE 608 0 368 0
WIRE 640 48 576 48
WIRE 112 64 112 -48
WIRE 128 64 112 64
WIRE 336 64 320 64
WIRE 368 64 368 0
WIRE 368 64 336 64
WIRE 400 64 368 64
WIRE 720 80 720 48
WIRE 816 80 816 48
WIRE 16 96 16 -128
WIRE 128 96 16 96
WIRE 336 96 336 64
WIRE 336 96 320 96
WIRE 128 128 80 128
WIRE 576 128 320 128
WIRE -208 160 -448 160
WIRE -32 160 -208 160
WIRE 128 160 -32 160
WIRE 560 160 320 160
WIRE 592 160 560 160
WIRE 640 160 640 48
WIRE 640 160 592 160
WIRE 592 176 592 160
WIRE -208 192 -208 160
WIRE 128 192 80 192
WIRE 480 192 320 192
WIRE 128 224 96 224
WIRE 384 224 320 224
WIRE 480 224 480 192
WIRE 96 240 96 224
WIRE 592 288 592 256
WIRE -288 464 -288 448
WIRE 192 464 192 448
WIRE -448 496 -448 480
WIRE 32 496 32 480
WIRE -176 544 -192 544
WIRE 304 544 288 544
WIRE -288 560 -288 544
WIRE -192 560 -192 544
WIRE -192 560 -288 560
WIRE -64 560 -112 560
WIRE -48 560 -64 560
WIRE 192 560 192 544
WIRE 288 560 288 544
WIRE 288 560 192 560
WIRE 416 560 368 560
WIRE 432 560 416 560
WIRE -176 576 -448 576
WIRE 304 576 32 576
WIRE -448 592 -448 576
WIRE 32 592 32 576
WIRE -288 608 -288 560
WIRE 192 608 192 560
WIRE -448 688 -448 672
WIRE 32 688 32 672
FLAG 400 64 vout
FLAG 592 288 0
FLAG 384 304 0
FLAG 480 288 0
FLAG -448 32 0
FLAG -448 240 0
FLAG 64 -48 vin1
FLAG -32 160 vin2
FLAG -208 32 0
FLAG -208 256 0
FLAG 96 240 0
FLAG 80 128 ov1
FLAG 80 192 ov2
FLAG 560 160 vref
FLAG -448 480 vref
FLAG -448 688 0
FLAG -144 592 0
FLAG -144 528 vref
FLAG -288 448 vin1
FLAG -288 688 0
FLAG -64 560 ov1
FLAG 32 480 vref
FLAG 32 688 0
FLAG 336 592 0
FLAG 336 528 vref
FLAG 192 448 vin2
FLAG 192 688 0
FLAG 416 560 ov2
FLAG 256 -128 0
FLAG 720 80 0
FLAG 816 80 0
SYMBOL AutoGenerated\\TPS2121_TRANS 224 144 R0
SYMATTR InstName U1
SYMBOL res 368 208 R0
SYMATTR InstName R1
SYMATTR Value 44.2k
SYMBOL cap 464 224 R0
SYMATTR InstName C1
SYMATTR Value 100n
SYMBOL res 592 144 R180
WINDOW 0 36 76 Left 2
WINDOW 3 36 40 Left 2
SYMATTR InstName R2
SYMATTR Value 10k
SYMBOL cap 704 -16 R0
SYMATTR InstName C2
SYMATTR Value 300µ
SYMBOL res 800 -48 R0
SYMATTR InstName R3
SYMATTR Value 100
SYMBOL voltage 592 160 R0
WINDOW 123 0 0 Left 0
WINDOW 39 0 0 Left 0
SYMATTR InstName V1
SYMATTR Value 3.3
SYMBOL voltage -448 -64 R0
WINDOW 123 0 0 Left 0
WINDOW 39 0 0 Left 0
WINDOW 3 4 -8 Left 2
SYMATTR InstName V2
SYMATTR Value PULSE(0 4.2 0 10m 50m 20m 200m)
SYMBOL voltage -448 144 R0
WINDOW 123 0 0 Left 0
WINDOW 39 0 0 Left 0
WINDOW 3 6 -9 Left 2
SYMATTR InstName V3
SYMATTR Value PULSE(0 4.2 5m 10m 150m 60m)
SYMBOL cap -224 -32 R0
SYMATTR InstName C3
SYMATTR Value 4.7µ
SYMBOL cap -224 192 R0
SYMATTR InstName C4
SYMATTR Value 4.7µ
SYMBOL OpAmps\\UniversalOpAmp2 -144 560 R0
SYMATTR InstName U2
SYMBOL res -464 576 R0
SYMATTR InstName R6
SYMATTR Value 10k
SYMBOL res -464 480 R0
SYMATTR InstName R7
SYMATTR Value 10k
SYMBOL res -304 448 R0
SYMATTR InstName R8
SYMATTR Value 1.6k
SYMBOL res -304 592 R0
SYMATTR InstName R9
SYMATTR Value 1.5k
SYMBOL OpAmps\\UniversalOpAmp2 336 560 R0
SYMATTR InstName U3
SYMBOL res 16 576 R0
SYMATTR InstName R10
SYMATTR Value 10k
SYMBOL res 16 480 R0
SYMATTR InstName R11
SYMATTR Value 10k
SYMBOL res 176 448 R0
SYMATTR InstName R12
SYMATTR Value 1.6k
SYMBOL res 176 592 R0
SYMATTR InstName R13
SYMATTR Value 1.5k
SYMBOL voltage 160 -128 R270
WINDOW 0 32 56 VTop 2
WINDOW 3 -32 56 VBottom 2
WINDOW 123 0 0 Left 0
WINDOW 39 0 0 Left 0
SYMATTR InstName V4
SYMATTR Value 4
TEXT -456 288 Left 2 !.tran 260m
